<?xml version="1.0" ?>
<template encoding-version="1.1">
  <description></description>
  <groupId>ec1c1e6d-3f07-1831-c6df-db979f9d8171</groupId>
  <name>Tempus_Concho_03152018</name>
  <snippet>
    <connections>
      <id>8d1b7a8c-0a39-34a2-0000-000000000000</id>
      <parentGroupId>47e1392e-aedd-3dde-0000-000000000000</parentGroupId>
      <backPressureDataSizeThreshold>1 GB</backPressureDataSizeThreshold>
      <backPressureObjectThreshold>10000</backPressureObjectThreshold>
      <destination>
        <groupId>7030d27f-2844-32f6-0000-000000000000</groupId>
        <id>44187f59-7645-3688-0000-000000000000</id>
        <type>INPUT_PORT</type>
      </destination>
      <flowFileExpiration>0 sec</flowFileExpiration>
      <labelIndex>1</labelIndex>
      <name></name>
      <source>
        <groupId>90c8b51f-2116-3687-0000-000000000000</groupId>
        <id>cc7494b3-e957-3829-0000-000000000000</id>
        <type>OUTPUT_PORT</type>
      </source>
      <zIndex>0</zIndex>
    </connections>
    <connections>
      <id>cee8b3b4-2166-3544-0000-000000000000</id>
      <parentGroupId>47e1392e-aedd-3dde-0000-000000000000</parentGroupId>
      <backPressureDataSizeThreshold>1 GB</backPressureDataSizeThreshold>
      <backPressureObjectThreshold>10000</backPressureObjectThreshold>
      <bends>
        <x>818.5745918007558</x>
        <y>463.8364944458008</y>
      </bends>
      <destination>
        <groupId>200daf72-8fdf-3567-0000-000000000000</groupId>
        <id>1ce57bce-6d56-36ee-0000-000000000000</id>
        <type>INPUT_PORT</type>
      </destination>
      <flowFileExpiration>0 sec</flowFileExpiration>
      <labelIndex>1</labelIndex>
      <name></name>
      <source>
        <groupId>90c8b51f-2116-3687-0000-000000000000</groupId>
        <id>cc7494b3-e957-3829-0000-000000000000</id>
        <type>OUTPUT_PORT</type>
      </source>
      <zIndex>0</zIndex>
    </connections>
    <connections>
      <id>d80ea56f-dd98-352d-0000-000000000000</id>
      <parentGroupId>47e1392e-aedd-3dde-0000-000000000000</parentGroupId>
      <backPressureDataSizeThreshold>1 GB</backPressureDataSizeThreshold>
      <backPressureObjectThreshold>10000</backPressureObjectThreshold>
      <destination>
        <groupId>bd6a50e0-2f4f-3ffe-0000-000000000000</groupId>
        <id>f74c15ce-dc73-34ac-0000-000000000000</id>
        <type>INPUT_PORT</type>
      </destination>
      <flowFileExpiration>0 sec</flowFileExpiration>
      <labelIndex>1</labelIndex>
      <name></name>
      <source>
        <groupId>200daf72-8fdf-3567-0000-000000000000</groupId>
        <id>80f7a529-0872-3598-0000-000000000000</id>
        <type>OUTPUT_PORT</type>
      </source>
      <zIndex>0</zIndex>
    </connections>
    <connections>
      <id>e817635d-7c72-384f-0000-000000000000</id>
      <parentGroupId>47e1392e-aedd-3dde-0000-000000000000</parentGroupId>
      <backPressureDataSizeThreshold>1 GB</backPressureDataSizeThreshold>
      <backPressureObjectThreshold>10000</backPressureObjectThreshold>
      <destination>
        <groupId>ec2329b4-fa74-3755-0000-000000000000</groupId>
        <id>19bb20c3-daa6-3327-0000-000000000000</id>
        <type>INPUT_PORT</type>
      </destination>
      <flowFileExpiration>0 sec</flowFileExpiration>
      <labelIndex>1</labelIndex>
      <name></name>
      <source>
        <groupId>90c8b51f-2116-3687-0000-000000000000</groupId>
        <id>cc7494b3-e957-3829-0000-000000000000</id>
        <type>OUTPUT_PORT</type>
      </source>
      <zIndex>0</zIndex>
    </connections>
    <connections>
      <id>05b2f2b1-d341-3556-0000-000000000000</id>
      <parentGroupId>47e1392e-aedd-3dde-0000-000000000000</parentGroupId>
      <backPressureDataSizeThreshold>1 GB</backPressureDataSizeThreshold>
      <backPressureObjectThreshold>10000</backPressureObjectThreshold>
      <destination>
        <groupId>e5cd8a7c-48b5-353b-0000-000000000000</groupId>
        <id>b61273c1-d10a-3e70-0000-000000000000</id>
        <type>INPUT_PORT</type>
      </destination>
      <flowFileExpiration>0 sec</flowFileExpiration>
      <labelIndex>1</labelIndex>
      <name></name>
      <source>
        <groupId>200daf72-8fdf-3567-0000-000000000000</groupId>
        <id>2d69da20-9f66-3aeb-0000-000000000000</id>
        <type>OUTPUT_PORT</type>
      </source>
      <zIndex>0</zIndex>
    </connections>
    <connections>
      <id>27b4aca5-d889-38fe-0000-000000000000</id>
      <parentGroupId>47e1392e-aedd-3dde-0000-000000000000</parentGroupId>
      <backPressureDataSizeThreshold>1 GB</backPressureDataSizeThreshold>
      <backPressureObjectThreshold>10000</backPressureObjectThreshold>
      <destination>
        <groupId>2bad8c64-68d8-30c6-0000-000000000000</groupId>
        <id>6e3e79d0-559f-3270-0000-000000000000</id>
        <type>INPUT_PORT</type>
      </destination>
      <flowFileExpiration>0 sec</flowFileExpiration>
      <labelIndex>1</labelIndex>
      <name></name>
      <source>
        <groupId>90c8b51f-2116-3687-0000-000000000000</groupId>
        <id>cc7494b3-e957-3829-0000-000000000000</id>
        <type>OUTPUT_PORT</type>
      </source>
      <zIndex>0</zIndex>
    </connections>
    <connections>
      <id>394cd4bb-5801-39d1-0000-000000000000</id>
      <parentGroupId>47e1392e-aedd-3dde-0000-000000000000</parentGroupId>
      <backPressureDataSizeThreshold>1 GB</backPressureDataSizeThreshold>
      <backPressureObjectThreshold>10000</backPressureObjectThreshold>
      <destination>
        <groupId>90c8b51f-2116-3687-0000-000000000000</groupId>
        <id>13e2a74d-e8e7-360b-0000-000000000000</id>
        <type>INPUT_PORT</type>
      </destination>
      <flowFileExpiration>0 sec</flowFileExpiration>
      <labelIndex>1</labelIndex>
      <name></name>
      <source>
        <groupId>362ef84c-59a6-3108-0000-000000000000</groupId>
        <id>f2db2193-a6f2-306c-0000-000000000000</id>
        <type>OUTPUT_PORT</type>
      </source>
      <zIndex>0</zIndex>
    </connections>
    <connections>
      <id>67b87f65-0d21-317d-0000-000000000000</id>
      <parentGroupId>47e1392e-aedd-3dde-0000-000000000000</parentGroupId>
      <backPressureDataSizeThreshold>1 GB</backPressureDataSizeThreshold>
      <backPressureObjectThreshold>10000</backPressureObjectThreshold>
      <destination>
        <groupId>873a357d-3304-3b75-0000-000000000000</groupId>
        <id>8e379a4c-f242-3ce9-0000-000000000000</id>
        <type>INPUT_PORT</type>
      </destination>
      <flowFileExpiration>0 sec</flowFileExpiration>
      <labelIndex>1</labelIndex>
      <name></name>
      <source>
        <groupId>7030d27f-2844-32f6-0000-000000000000</groupId>
        <id>f17ff7d4-467d-3747-0000-000000000000</id>
        <type>OUTPUT_PORT</type>
      </source>
      <zIndex>0</zIndex>
    </connections>
    <controllerServices>
      <id>8e72030c-c4be-3334-0000-000000000000</id>
      <parentGroupId>47e1392e-aedd-3dde-0000-000000000000</parentGroupId>
      <bundle>
        <artifact>nifi-nifiwitsml-nar</artifact>
        <group>org.hashmapinc.tempus</group>
        <version>1.0-SNAPSHOT</version>
      </bundle>
      <comments></comments>
      <descriptors>
        <entry>
          <key>Endpoint URL</key>
          <value>
            <name>Endpoint URL</name>
          </value>
        </entry>
        <entry>
          <key>Username</key>
          <value>
            <name>Username</name>
          </value>
        </entry>
        <entry>
          <key>Password</key>
          <value>
            <name>Password</name>
          </value>
        </entry>
      </descriptors>
      <name>Witsml1311Service_Tempus</name>
      <persistsState>false</persistsState>
      <properties>
        <entry>
          <key>Endpoint URL</key>
          <value>https://hub.us.pason.com/hub/witsml/store</value>
        </entry>
        <entry>
          <key>Username</key>
          <value>j.shivers</value>
        </entry>
        <entry>
          <key>Password</key>
        </entry>
      </properties>
      <state>ENABLED</state>
      <type>org.hashmapinc.tempus.processors.witsml.Witsml1311Service</type>
    </controllerServices>
    <controllerServices>
      <id>161fe700-62fd-3520-0000-000000000000</id>
      <parentGroupId>47e1392e-aedd-3dde-0000-000000000000</parentGroupId>
      <bundle>
        <artifact>nifi-distributed-cache-services-nar</artifact>
        <group>org.apache.nifi</group>
        <version>1.4.0</version>
      </bundle>
      <comments></comments>
      <descriptors>
        <entry>
          <key>Server Hostname</key>
          <value>
            <name>Server Hostname</name>
          </value>
        </entry>
        <entry>
          <key>Server Port</key>
          <value>
            <name>Server Port</name>
          </value>
        </entry>
        <entry>
          <key>SSL Context Service</key>
          <value>
            <identifiesControllerService>org.apache.nifi.ssl.SSLContextService</identifiesControllerService>
            <name>SSL Context Service</name>
          </value>
        </entry>
        <entry>
          <key>Communications Timeout</key>
          <value>
            <name>Communications Timeout</name>
          </value>
        </entry>
      </descriptors>
      <name>LOG-DistrMapCacheClntService</name>
      <persistsState>false</persistsState>
      <properties>
        <entry>
          <key>Server Hostname</key>
          <value>localhost</value>
        </entry>
        <entry>
          <key>Server Port</key>
          <value>4559</value>
        </entry>
        <entry>
          <key>SSL Context Service</key>
        </entry>
        <entry>
          <key>Communications Timeout</key>
          <value>60 secs</value>
        </entry>
      </properties>
      <state>ENABLED</state>
      <type>org.apache.nifi.distributed.cache.client.DistributedMapCacheClientService</type>
    </controllerServices>
    <controllerServices>
      <id>1fe835c1-7902-352a-0000-000000000000</id>
      <parentGroupId>47e1392e-aedd-3dde-0000-000000000000</parentGroupId>
      <bundle>
        <artifact>nifi-distributed-cache-services-nar</artifact>
        <group>org.apache.nifi</group>
        <version>1.4.0</version>
      </bundle>
      <comments></comments>
      <descriptors>
        <entry>
          <key>Server Hostname</key>
          <value>
            <name>Server Hostname</name>
          </value>
        </entry>
        <entry>
          <key>Server Port</key>
          <value>
            <name>Server Port</name>
          </value>
        </entry>
        <entry>
          <key>SSL Context Service</key>
          <value>
            <identifiesControllerService>org.apache.nifi.ssl.SSLContextService</identifiesControllerService>
            <name>SSL Context Service</name>
          </value>
        </entry>
        <entry>
          <key>Communications Timeout</key>
          <value>
            <name>Communications Timeout</name>
          </value>
        </entry>
      </descriptors>
      <name>OTHER-DistriMapCacheClntService</name>
      <persistsState>false</persistsState>
      <properties>
        <entry>
          <key>Server Hostname</key>
          <value>localhost</value>
        </entry>
        <entry>
          <key>Server Port</key>
          <value>4558</value>
        </entry>
        <entry>
          <key>SSL Context Service</key>
        </entry>
        <entry>
          <key>Communications Timeout</key>
          <value>60 secs</value>
        </entry>
      </properties>
      <state>ENABLED</state>
      <type>org.apache.nifi.distributed.cache.client.DistributedMapCacheClientService</type>
    </controllerServices>
    <controllerServices>
      <id>7fa98b9f-dfd3-38ee-0000-000000000000</id>
      <parentGroupId>47e1392e-aedd-3dde-0000-000000000000</parentGroupId>
      <bundle>
        <artifact>nifi-dbcp-service-nar</artifact>
        <group>org.apache.nifi</group>
        <version>1.4.0</version>
      </bundle>
      <comments></comments>
      <descriptors>
        <entry>
          <key>Database Connection URL</key>
          <value>
            <name>Database Connection URL</name>
          </value>
        </entry>
        <entry>
          <key>Database Driver Class Name</key>
          <value>
            <name>Database Driver Class Name</name>
          </value>
        </entry>
        <entry>
          <key>database-driver-locations</key>
          <value>
            <name>database-driver-locations</name>
          </value>
        </entry>
        <entry>
          <key>Database User</key>
          <value>
            <name>Database User</name>
          </value>
        </entry>
        <entry>
          <key>Password</key>
          <value>
            <name>Password</name>
          </value>
        </entry>
        <entry>
          <key>Max Wait Time</key>
          <value>
            <name>Max Wait Time</name>
          </value>
        </entry>
        <entry>
          <key>Max Total Connections</key>
          <value>
            <name>Max Total Connections</name>
          </value>
        </entry>
        <entry>
          <key>Validation-query</key>
          <value>
            <name>Validation-query</name>
          </value>
        </entry>
      </descriptors>
      <name>DBCPConnectionPool_Tempus</name>
      <persistsState>false</persistsState>
      <properties>
        <entry>
          <key>Database Connection URL</key>
          <value>jdbc:impala://cwkr03-mid-tst.conchoresources.com:21050;UseNativeQuery=1</value>
        </entry>
        <entry>
          <key>Database Driver Class Name</key>
          <value>com.cloudera.impala.jdbc4.Driver</value>
        </entry>
        <entry>
          <key>database-driver-locations</key>
          <value>/usr/nifi/kudujars</value>
        </entry>
        <entry>
          <key>Database User</key>
        </entry>
        <entry>
          <key>Password</key>
        </entry>
        <entry>
          <key>Max Wait Time</key>
          <value>500 millis</value>
        </entry>
        <entry>
          <key>Max Total Connections</key>
          <value>8</value>
        </entry>
        <entry>
          <key>Validation-query</key>
        </entry>
      </properties>
      <state>ENABLED</state>
      <type>org.apache.nifi.dbcp.DBCPConnectionPool</type>
    </controllerServices>
    <processGroups>
      <id>873a357d-3304-3b75-0000-000000000000</id>
      <parentGroupId>47e1392e-aedd-3dde-0000-000000000000</parentGroupId>
      <position>
        <x>1444.609404154539</x>
        <y>832.7177254763754</y>
      </position>
      <comments></comments>
      <contents>
        <connections>
          <id>94d38e05-f364-30f1-0000-000000000000</id>
          <parentGroupId>873a357d-3304-3b75-0000-000000000000</parentGroupId>
          <backPressureDataSizeThreshold>1 GB</backPressureDataSizeThreshold>
          <backPressureObjectThreshold>10000</backPressureObjectThreshold>
          <bends>
            <x>3530.7268778509024</x>
            <y>840.0134997482186</y>
          </bends>
          <bends>
            <x>3530.7268778509024</x>
            <y>890.0134997482186</y>
          </bends>
          <destination>
            <groupId>873a357d-3304-3b75-0000-000000000000</groupId>
            <id>4d204bbf-7e8d-348c-0000-000000000000</id>
            <type>PROCESSOR</type>
          </destination>
          <flowFileExpiration>0 sec</flowFileExpiration>
          <labelIndex>1</labelIndex>
          <name></name>
          <selectedRelationships>Requery</selectedRelationships>
          <source>
            <groupId>873a357d-3304-3b75-0000-000000000000</groupId>
            <id>4d204bbf-7e8d-348c-0000-000000000000</id>
            <type>PROCESSOR</type>
          </source>
          <zIndex>0</zIndex>
        </connections>
        <connections>
          <id>be67a4f3-442c-34a8-0000-000000000000</id>
          <parentGroupId>873a357d-3304-3b75-0000-000000000000</parentGroupId>
          <backPressureDataSizeThreshold>2 GB</backPressureDataSizeThreshold>
          <backPressureObjectThreshold>20000</backPressureObjectThreshold>
          <destination>
            <groupId>873a357d-3304-3b75-0000-000000000000</groupId>
            <id>a37f31aa-8034-3996-0000-000000000000</id>
            <type>PROCESSOR</type>
          </destination>
          <flowFileExpiration>0 sec</flowFileExpiration>
          <labelIndex>1</labelIndex>
          <name></name>
          <selectedRelationships>Trajectory</selectedRelationships>
          <source>
            <groupId>873a357d-3304-3b75-0000-000000000000</groupId>
            <id>4d204bbf-7e8d-348c-0000-000000000000</id>
            <type>PROCESSOR</type>
          </source>
          <zIndex>0</zIndex>
        </connections>
        <connections>
          <id>d8aa12d1-5657-369b-0000-000000000000</id>
          <parentGroupId>873a357d-3304-3b75-0000-000000000000</parentGroupId>
          <backPressureDataSizeThreshold>1 GB</backPressureDataSizeThreshold>
          <backPressureObjectThreshold>10000</backPressureObjectThreshold>
          <destination>
            <groupId>873a357d-3304-3b75-0000-000000000000</groupId>
            <id>6be96648-3c12-3701-0000-000000000000</id>
            <type>PROCESSOR</type>
          </destination>
          <flowFileExpiration>0 sec</flowFileExpiration>
          <labelIndex>1</labelIndex>
          <name></name>
          <selectedRelationships>Success</selectedRelationships>
          <source>
            <groupId>873a357d-3304-3b75-0000-000000000000</groupId>
            <id>d6c776dd-4610-37ac-0000-000000000000</id>
            <type>PROCESSOR</type>
          </source>
          <zIndex>0</zIndex>
        </connections>
        <connections>
          <id>f513e873-9a36-36ff-0000-000000000000</id>
          <parentGroupId>873a357d-3304-3b75-0000-000000000000</parentGroupId>
          <backPressureDataSizeThreshold>1 GB</backPressureDataSizeThreshold>
          <backPressureObjectThreshold>10000</backPressureObjectThreshold>
          <destination>
            <groupId>873a357d-3304-3b75-0000-000000000000</groupId>
            <id>4d204bbf-7e8d-348c-0000-000000000000</id>
            <type>PROCESSOR</type>
          </destination>
          <flowFileExpiration>0 sec</flowFileExpiration>
          <labelIndex>1</labelIndex>
          <name></name>
          <source>
            <groupId>873a357d-3304-3b75-0000-000000000000</groupId>
            <id>8e379a4c-f242-3ce9-0000-000000000000</id>
            <type>INPUT_PORT</type>
          </source>
          <zIndex>0</zIndex>
        </connections>
        <connections>
          <id>6bcae5bb-0d35-3b0c-0000-000000000000</id>
          <parentGroupId>873a357d-3304-3b75-0000-000000000000</parentGroupId>
          <backPressureDataSizeThreshold>1 GB</backPressureDataSizeThreshold>
          <backPressureObjectThreshold>10000</backPressureObjectThreshold>
          <destination>
            <groupId>873a357d-3304-3b75-0000-000000000000</groupId>
            <id>d6c776dd-4610-37ac-0000-000000000000</id>
            <type>PROCESSOR</type>
          </destination>
          <flowFileExpiration>0 sec</flowFileExpiration>
          <labelIndex>1</labelIndex>
          <name></name>
          <selectedRelationships>matched</selectedRelationships>
          <source>
            <groupId>873a357d-3304-3b75-0000-000000000000</groupId>
            <id>a37f31aa-8034-3996-0000-000000000000</id>
            <type>PROCESSOR</type>
          </source>
          <zIndex>0</zIndex>
        </connections>
        <inputPorts>
          <id>8e379a4c-f242-3ce9-0000-000000000000</id>
          <parentGroupId>873a357d-3304-3b75-0000-000000000000</parentGroupId>
          <position>
            <x>3130.7268778509024</x>
            <y>697.7126282176855</y>
          </position>
          <comments></comments>
          <concurrentlySchedulableTaskCount>1</concurrentlySchedulableTaskCount>
          <name>SuccessFromTrajectory</name>
          <state>RUNNING</state>
          <type>INPUT_PORT</type>
        </inputPorts>
        <processors>
          <id>a37f31aa-8034-3996-0000-000000000000</id>
          <parentGroupId>873a357d-3304-3b75-0000-000000000000</parentGroupId>
          <position>
            <x>3075.7268778509024</x>
            <y>996.4260525703858</y>
          </position>
          <bundle>
            <artifact>nifi-standard-nar</artifact>
            <group>org.apache.nifi</group>
            <version>1.4.0</version>
          </bundle>
          <config>
            <bulletinLevel>WARN</bulletinLevel>
            <comments></comments>
            <concurrentlySchedulableTaskCount>1</concurrentlySchedulableTaskCount>
            <descriptors>
              <entry>
                <key>Destination</key>
                <value>
                  <name>Destination</name>
                </value>
              </entry>
              <entry>
                <key>Return Type</key>
                <value>
                  <name>Return Type</name>
                </value>
              </entry>
              <entry>
                <key>Path Not Found Behavior</key>
                <value>
                  <name>Path Not Found Behavior</name>
                </value>
              </entry>
              <entry>
                <key>Null Value Representation</key>
                <value>
                  <name>Null Value Representation</name>
                </value>
              </entry>
              <entry>
                <key>aziUom</key>
                <value>
                  <name>aziUom</name>
                </value>
              </entry>
              <entry>
                <key>aziValue</key>
                <value>
                  <name>aziValue</name>
                </value>
              </entry>
              <entry>
                <key>dispEwUom</key>
                <value>
                  <name>dispEwUom</name>
                </value>
              </entry>
              <entry>
                <key>dispEwValue</key>
                <value>
                  <name>dispEwValue</name>
                </value>
              </entry>
              <entry>
                <key>dispNsUom</key>
                <value>
                  <name>dispNsUom</name>
                </value>
              </entry>
              <entry>
                <key>dispNsValue</key>
                <value>
                  <name>dispNsValue</name>
                </value>
              </entry>
              <entry>
                <key>dlsUom</key>
                <value>
                  <name>dlsUom</name>
                </value>
              </entry>
              <entry>
                <key>dlsValue</key>
                <value>
                  <name>dlsValue</name>
                </value>
              </entry>
              <entry>
                <key>dtimStn</key>
                <value>
                  <name>dtimStn</name>
                </value>
              </entry>
              <entry>
                <key>inclUom</key>
                <value>
                  <name>inclUom</name>
                </value>
              </entry>
              <entry>
                <key>inclValue</key>
                <value>
                  <name>inclValue</name>
                </value>
              </entry>
              <entry>
                <key>mdUom</key>
                <value>
                  <name>mdUom</name>
                </value>
              </entry>
              <entry>
                <key>mdValue</key>
                <value>
                  <name>mdValue</name>
                </value>
              </entry>
              <entry>
                <key>tvdUom</key>
                <value>
                  <name>tvdUom</name>
                </value>
              </entry>
              <entry>
                <key>tvdValue</key>
                <value>
                  <name>tvdValue</name>
                </value>
              </entry>
              <entry>
                <key>typeTrajStation</key>
                <value>
                  <name>typeTrajStation</name>
                </value>
              </entry>
              <entry>
                <key>uid</key>
                <value>
                  <name>uid</name>
                </value>
              </entry>
              <entry>
                <key>vertSectUom</key>
                <value>
                  <name>vertSectUom</name>
                </value>
              </entry>
              <entry>
                <key>vertSectValue</key>
                <value>
                  <name>vertSectValue</name>
                </value>
              </entry>
            </descriptors>
            <executionNode>ALL</executionNode>
            <lossTolerant>false</lossTolerant>
            <penaltyDuration>30 sec</penaltyDuration>
            <properties>
              <entry>
                <key>Destination</key>
                <value>flowfile-attribute</value>
              </entry>
              <entry>
                <key>Return Type</key>
                <value>auto-detect</value>
              </entry>
              <entry>
                <key>Path Not Found Behavior</key>
                <value>ignore</value>
              </entry>
              <entry>
                <key>Null Value Representation</key>
                <value>empty string</value>
              </entry>
              <entry>
                <key>aziUom</key>
                <value>$.azi.uom</value>
              </entry>
              <entry>
                <key>aziValue</key>
                <value>$.azi.value</value>
              </entry>
              <entry>
                <key>dispEwUom</key>
                <value>$.dispEw.uom</value>
              </entry>
              <entry>
                <key>dispEwValue</key>
                <value>$.dispEw.value</value>
              </entry>
              <entry>
                <key>dispNsUom</key>
                <value>$.dispNs.uom</value>
              </entry>
              <entry>
                <key>dispNsValue</key>
                <value>$.dispNs.value</value>
              </entry>
              <entry>
                <key>dlsUom</key>
                <value>$.dls.uom</value>
              </entry>
              <entry>
                <key>dlsValue</key>
                <value>$.dls.value</value>
              </entry>
              <entry>
                <key>dtimStn</key>
                <value>$.dtimStn</value>
              </entry>
              <entry>
                <key>inclUom</key>
                <value>$.incl.uom</value>
              </entry>
              <entry>
                <key>inclValue</key>
                <value>$.incl.value</value>
              </entry>
              <entry>
                <key>mdUom</key>
                <value>$.md.uom</value>
              </entry>
              <entry>
                <key>mdValue</key>
                <value>$.md.value</value>
              </entry>
              <entry>
                <key>tvdUom</key>
                <value>$.tvd.uom</value>
              </entry>
              <entry>
                <key>tvdValue</key>
                <value>$.tvd.value</value>
              </entry>
              <entry>
                <key>typeTrajStation</key>
                <value>$.typeTrajStation</value>
              </entry>
              <entry>
                <key>uid</key>
                <value>$.uid</value>
              </entry>
              <entry>
                <key>vertSectUom</key>
                <value>$.vertSect.uom</value>
              </entry>
              <entry>
                <key>vertSectValue</key>
                <value>$.vertSect.value</value>
              </entry>
            </properties>
            <runDurationMillis>0</runDurationMillis>
            <schedulingPeriod>0 sec</schedulingPeriod>
            <schedulingStrategy>TIMER_DRIVEN</schedulingStrategy>
            <yieldDuration>1 sec</yieldDuration>
          </config>
          <name>EvaluateJsonTrajectoryStation</name>
          <relationships>
            <autoTerminate>true</autoTerminate>
            <name>failure</name>
          </relationships>
          <relationships>
            <autoTerminate>false</autoTerminate>
            <name>matched</name>
          </relationships>
          <relationships>
            <autoTerminate>true</autoTerminate>
            <name>unmatched</name>
          </relationships>
          <state>RUNNING</state>
          <style></style>
          <type>org.apache.nifi.processors.standard.EvaluateJsonPath</type>
        </processors>
        <processors>
          <id>d6c776dd-4610-37ac-0000-000000000000</id>
          <parentGroupId>873a357d-3304-3b75-0000-000000000000</parentGroupId>
          <position>
            <x>3717.247441112013</x>
            <y>1002.3954136848963</y>
          </position>
          <bundle>
            <artifact>nifi-tempus-nar</artifact>
            <group>com.hashmapinc.tempus.nifi</group>
            <version>1.0-SNAPSHOT</version>
          </bundle>
          <config>
            <bulletinLevel>WARN</bulletinLevel>
            <comments></comments>
            <concurrentlySchedulableTaskCount>1</concurrentlySchedulableTaskCount>
            <descriptors>
              <entry>
                <key>Device Name</key>
                <value>
                  <name>Device Name</name>
                </value>
              </entry>
              <entry>
                <key>Trajectory Type</key>
                <value>
                  <name>Trajectory Type</name>
                </value>
              </entry>
              <entry>
                <key>Source Field Name</key>
                <value>
                  <name>Source Field Name</name>
                </value>
              </entry>
              <entry>